[
  {
    "@id": "https://ror.org/05h54z930",
    "@type": [
      "http://www.w3.org/ns/org#Organization"
    ],
    "http://purl.org/dc/terms/modified": [
      {
        "@type": "http://www.w3.org/2001/XMLSchema#date",
        "@value": "2022-11-15"
      }
    ],
    "http://www.w3.org/2000/01/rdf-schema#label": [
      {
        "@type": "http://www.w3.org/2001/XMLSchema#string",
        "@value": "AeroDynamic Solutions (United States)"
      }
    ],
    "http://www.w3.org/ns/org#abbreviation": [
      {
        "@type": "http://www.w3.org/2001/XMLSchema#string",
        "@value": "ADS"
      }
    ],
    "http://www.w3.org/ns/org#classification": [
      {
        "@type": "http://www.w3.org/2001/XMLSchema#string",
        "@value": "Company"
      }
    ],
    "http://www.w3.org/ns/org#status": [
      {
        "@type": "http://www.w3.org/2001/XMLSchema#string",
        "@value": "active"
      }
    ],
    "https://schema.org/foundingDate": [
      {
        "@type": "http://www.w3.org/2001/XMLSchema#gYear",
        "@value": "2009"
      }
    ],
    "https://schema.org/location": [
      {
        "@id": "_:n87b3b782e3ca49e085831efe886d19e3b1"
      }
    ],
    "https://schema.org/name": [
      {
        "@type": "http://www.w3.org/2001/XMLSchema#string",
        "@value": "AeroDynamic Solutions (United States)"
      }
    ],
    "https://schema.org/sameAs": [
      {
        "@id": "http://isni.org/isni/0000000458979573"
      },
      {
        "@id": "https://grid.ac/institutions/g"
      }
    ],
    "https://schema.org/url": [
      {
        "@id": "https://www.aerodynamic-solutions.com"
      }
    ]
  },
  {
    "@id": "_:n87b3b782e3ca49e085831efe886d19e3b1",
    "@type": [
      "https://schema.org/Place"
    ],
    "http://purl.org/dc/terms/license": [
      {
        "@id": "http://creativecommons.org/licenses/by/3.0/"
      }
    ],
    "http://www.opengis.net/ont/geosparql#asGeoJSON": [
      {
        "@value": "{\"type\":\"Point\",\"coordinates\":[-121.89496,37.33939]}"
      }
    ],
    "http://www.w3.org/2002/07/owl#sameAs": [
      {
        "@id": "http://sws.geonames.org/5392171/"
      }
    ],
    "https://schema.org/addressCountry": [
      {
        "@value": "US"
      }
    ],
    "https://schema.org/addressLocality": [
      {
        "@type": "http://www.w3.org/2001/XMLSchema#string",
        "@value": "San Jose"
      }
    ]
  }
]